<?xml version="1.0" encoding="UTF-8"?>

<!-- generated on Tue Jul 23 16:34:32 2019 by Eclipse SUMO netconvert Version 1.2.0
<configuration xmlns:xsi="http://www.w3.org/2001/XMLSchema-instance" xsi:noNamespaceSchemaLocation="http://sumo.dlr.de/xsd/netconvertConfiguration.xsd">

    <input>
        <opendrive-files value="Town02.xodr"/>
    </input>

    <tls_building>
        <tls.left-green.time value="0"/>
    </tls_building>

    <junctions>
        <rectangular-lane-cut value="true"/>
    </junctions>

</configuration>
-->

<net version="1.1" junctionCornerDetail="5" rectangularLaneCut="true" limitTurnSpeed="5.50" xmlns:xsi="http://www.w3.org/2001/XMLSchema-instance" xsi:noNamespaceSchemaLocation="http://sumo.dlr.de/xsd/net_file.xsd">

    <location netOffset="5.46,304.56" convBoundary="0.00,0.00,197.20,197.17" origBoundary="-5.46,-304.56,191.74,-107.39" projParameter="!"/>

    <type id="bidirectional" priority="1" speed="1.39" disallow="tram rail_urban rail rail_electric pedestrian ship" width="3.65"/>
    <type id="border" priority="0" speed="1.39" disallow="all" discard="1" width="0.10"/>
    <type id="driving" priority="1" speed="13.89" disallow="tram rail_urban rail rail_electric pedestrian ship" width="3.65"/>
    <type id="entry" priority="1" speed="22.22" disallow="tram rail_urban rail rail_electric pedestrian ship" width="3.65"/>
    <type id="exit" priority="1" speed="22.22" disallow="tram rail_urban rail rail_electric pedestrian ship" width="3.65"/>
    <type id="median" priority="0" speed="1.39" disallow="all" discard="1" width="0.10"/>
    <type id="mwyEntry" priority="1" speed="22.22" allow="private emergency authority army vip passenger hov taxi bus coach delivery truck trailer motorcycle evehicle custom1 custom2" width="3.65"/>
    <type id="mwyExit" priority="1" speed="22.22" allow="private emergency authority army vip passenger hov taxi bus coach delivery truck trailer motorcycle evehicle custom1 custom2" width="3.65"/>
    <type id="none" priority="0" speed="1.39" disallow="all" discard="1" width="1.00"/>
    <type id="offRamp" priority="1" speed="22.22" allow="private emergency authority army vip passenger hov taxi bus coach delivery truck trailer motorcycle evehicle custom1 custom2" width="3.65"/>
    <type id="onRamp" priority="1" speed="22.22" allow="private emergency authority army vip passenger hov taxi bus coach delivery truck trailer motorcycle evehicle custom1 custom2" width="3.65"/>
    <type id="parking" priority="1" speed="1.39" disallow="tram rail_urban rail rail_electric pedestrian ship" width="2.50"/>
    <type id="rail" priority="3" speed="33.33" allow="rail_urban rail rail_electric" width="3.65"/>
    <type id="restricted" priority="0" speed="13.89" disallow="all" width="3.65"/>
    <type id="roadWorks" priority="0" speed="1.39" allow="authority" width="3.65"/>
    <type id="shoulder" priority="0" speed="1.39" disallow="all" discard="1" width="1.00"/>
    <type id="special1" priority="1" speed="22.22" allow="custom1" discard="1" width="3.65"/>
    <type id="special2" priority="1" speed="22.22" allow="custom2" discard="1" width="3.65"/>
    <type id="special3" priority="1" speed="22.22" allow="custom1 custom2" discard="1" width="3.65"/>
    <type id="stop" priority="1" speed="13.89" disallow="tram rail_urban rail rail_electric pedestrian ship" width="3.65"/>
    <type id="tram" priority="2" speed="13.89" allow="tram" width="3.65"/>

    <edge id=":125_0" function="internal">
        <lane id=":125_0_0" index="0" disallow="tram rail_urban rail rail_electric pedestrian ship" speed="13.89" length="16.00" width="4.00" shape="57.31,116.98 41.31,116.99"/>
    </edge>
    <edge id=":125_1" function="internal">
        <lane id=":125_1_0" index="0" disallow="tram rail_urban rail rail_electric pedestrian ship" speed="8.76" length="6.81" width="4.00" shape="57.31,116.98 52.94,116.30 50.95,114.99"/>
    </edge>
    <edge id=":125_6" function="internal">
        <lane id=":125_6_0" index="0" disallow="tram rail_urban rail rail_electric pedestrian ship" speed="8.76" length="10.14" width="4.00" shape="50.95,114.99 49.81,114.24 47.94,110.80 47.31,105.98"/>
    </edge>
    <edge id=":125_2" function="internal">
        <lane id=":125_2_0" index="0" disallow="tram rail_urban rail rail_electric pedestrian ship" speed="7.04" length="10.50" width="4.00" shape="51.31,105.98 51.69,109.04 52.81,111.23 54.69,112.55 57.31,112.98"/>
    </edge>
    <edge id=":125_3" function="internal">
        <lane id=":125_3_0" index="0" disallow="tram rail_urban rail rail_electric pedestrian ship" speed="8.76" length="16.95" width="4.00" shape="51.31,105.98 50.69,110.80 48.81,114.24 45.69,116.30 41.31,116.99"/>
    </edge>
    <edge id=":125_4" function="internal">
        <lane id=":125_4_0" index="0" disallow="tram rail_urban rail rail_electric pedestrian ship" speed="7.05" length="10.50" width="4.00" shape="41.31,112.99 43.94,112.55 45.81,111.24 46.94,109.05 47.31,105.98"/>
    </edge>
    <edge id=":125_5" function="internal">
        <lane id=":125_5_0" index="0" disallow="tram rail_urban rail rail_electric pedestrian ship" speed="13.89" length="16.00" width="4.00" shape="41.31,112.99 57.31,112.98"/>
    </edge>
    <edge id=":16.1_0" function="internal">
        <lane id=":16.1_0_0" index="0" disallow="tram rail_urban rail rail_electric pedestrian ship" speed="13.89" length="0.10" width="4.00" shape="-1.90,187.01 -1.90,187.01"/>
    </edge>
    <edge id=":16.1_1" function="internal">
        <lane id=":16.1_1_0" index="0" disallow="tram rail_urban rail rail_electric pedestrian ship" speed="13.89" length="0.10" width="4.00" shape="2.10,187.00 2.10,187.00"/>
    </edge>
    <edge id=":16.12_0" function="internal">
        <lane id=":16.12_0_0" index="0" disallow="tram rail_urban rail rail_electric pedestrian ship" speed="13.89" length="2.20" width="4.00" shape="11.10,199.01 10.44,199.03 9.99,199.05 9.55,199.03 8.90,198.93"/>
    </edge>
    <edge id=":16.12_1" function="internal">
        <lane id=":16.12_1_0" index="0" disallow="tram rail_urban rail rail_electric pedestrian ship" speed="13.89" length="1.47" width="4.00" shape="9.64,195.00 10.07,195.06 10.37,195.06 10.67,195.03 11.11,195.01"/>
    </edge>
    <edge id=":160_0" function="internal">
        <lane id=":160_0_0" index="0" disallow="tram rail_urban rail rail_electric pedestrian ship" speed="6.82" length="9.75" width="4.00" shape="195.14,122.92 194.76,120.30 193.62,118.42 191.72,117.30 189.05,116.92"/>
    </edge>
    <edge id=":160_1" function="internal">
        <lane id=":160_1_0" index="0" disallow="tram rail_urban rail rail_electric pedestrian ship" speed="13.89" length="16.00" width="4.00" shape="195.14,122.92 195.15,106.92"/>
    </edge>
    <edge id=":160_2" function="internal">
        <lane id=":160_2_0" index="0" disallow="tram rail_urban rail rail_electric pedestrian ship" speed="13.89" length="16.00" width="4.00" shape="199.15,106.92 199.14,122.92"/>
    </edge>
    <edge id=":160_3" function="internal">
        <lane id=":160_3_0" index="0" disallow="tram rail_urban rail rail_electric pedestrian ship" speed="8.58" length="7.06" width="4.00" shape="199.15,106.92 198.52,111.30 197.15,113.56"/>
    </edge>
    <edge id=":160_6" function="internal">
        <lane id=":160_6_0" index="0" disallow="tram rail_urban rail rail_electric pedestrian ship" speed="8.58" length="9.14" width="4.00" shape="197.15,113.56 196.62,114.42 193.47,116.30 189.05,116.92"/>
    </edge>
    <edge id=":160_4" function="internal">
        <lane id=":160_4_0" index="0" disallow="tram rail_urban rail rail_electric pedestrian ship" speed="6.82" length="9.76" width="4.00" shape="189.05,112.92 191.72,112.55 193.62,111.42 194.77,109.55 195.15,106.92"/>
    </edge>
    <edge id=":160_5" function="internal">
        <lane id=":160_5_0" index="0" disallow="tram rail_urban rail rail_electric pedestrian ship" speed="8.58" length="16.21" width="4.00" shape="189.05,112.92 193.47,113.55 196.62,115.42 198.51,118.55 199.14,122.92"/>
    </edge>
    <edge id=":17.13_0" function="internal">
        <lane id=":17.13_0_0" index="0" disallow="tram rail_urban rail rail_electric pedestrian ship" speed="13.89" length="0.37" width="4.00" shape="195.13,10.13 195.13,10.02 195.14,9.94 195.14,9.87 195.13,9.76"/>
    </edge>
    <edge id=":17.13_1" function="internal">
        <lane id=":17.13_1_0" index="0" disallow="tram rail_urban rail rail_electric pedestrian ship" speed="13.89" length="0.37" width="4.00" shape="199.13,9.76 199.13,10.12"/>
    </edge>
    <edge id=":19.17_0" function="internal">
        <lane id=":19.17_0_0" index="0" disallow="tram rail_urban rail rail_electric pedestrian ship" speed="13.89" length="0.50" width="4.00" shape="186.27,1.89 186.13,1.90 186.04,1.96 185.95,2.03 185.81,2.06"/>
    </edge>
    <edge id=":19.17_1" function="internal">
        <lane id=":19.17_1_0" index="0" disallow="tram rail_urban rail rail_electric pedestrian ship" speed="13.89" length="1.29" width="4.00" shape="185.82,-1.94 186.20,-1.97 186.46,-2.03 186.72,-2.06 187.10,-2.02"/>
    </edge>
    <edge id=":195_0" function="internal">
        <lane id=":195_0_0" index="0" disallow="tram rail_urban rail rail_electric pedestrian ship" speed="6.80" length="9.68" width="4.00" shape="47.32,8.03 46.94,5.40 45.82,3.53 43.95,2.40 41.32,2.02"/>
    </edge>
    <edge id=":195_1" function="internal">
        <lane id=":195_1_0" index="0" disallow="tram rail_urban rail rail_electric pedestrian ship" speed="8.55" length="16.10" width="4.00" shape="47.32,8.03 47.94,3.66 49.81,0.53 52.93,-1.34 57.29,-1.97"/>
    </edge>
    <edge id=":195_2" function="internal">
        <lane id=":195_2_0" index="0" disallow="tram rail_urban rail rail_electric pedestrian ship" speed="6.79" length="9.65" width="4.00" shape="57.29,2.03 54.68,2.41 52.81,3.53 51.69,5.41 51.32,8.03"/>
    </edge>
    <edge id=":195_3" function="internal">
        <lane id=":195_3_0" index="0" disallow="tram rail_urban rail rail_electric pedestrian ship" speed="13.89" length="15.96" width="4.00" shape="57.29,2.03 41.32,2.02"/>
    </edge>
    <edge id=":195_4" function="internal">
        <lane id=":195_4_0" index="0" disallow="tram rail_urban rail rail_electric pedestrian ship" speed="13.89" length="15.96" width="4.00" shape="41.33,-1.98 57.29,-1.97"/>
    </edge>
    <edge id=":195_5" function="internal">
        <lane id=":195_5_0" index="0" disallow="tram rail_urban rail rail_electric pedestrian ship" speed="8.56" length="7.09" width="4.00" shape="41.33,-1.98 45.70,-1.35 47.99,0.03"/>
    </edge>
    <edge id=":195_6" function="internal">
        <lane id=":195_6_0" index="0" disallow="tram rail_urban rail rail_electric pedestrian ship" speed="8.56" length="9.04" width="4.00" shape="47.99,0.03 48.82,0.53 50.69,3.65 51.32,8.03"/>
    </edge>
    <edge id=":2.0_0" function="internal">
        <lane id=":2.0_0_0" index="0" disallow="tram rail_urban rail rail_electric pedestrian ship" speed="13.89" length="0.10" width="4.00" shape="-1.91,9.86 -1.91,9.86"/>
    </edge>
    <edge id=":2.0_1" function="internal">
        <lane id=":2.0_1_0" index="0" disallow="tram rail_urban rail rail_electric pedestrian ship" speed="13.89" length="0.10" width="4.00" shape="2.09,9.86 2.09,9.86"/>
    </edge>
    <edge id=":2.18_0" function="internal">
        <lane id=":2.18_0_0" index="0" disallow="tram rail_urban rail rail_electric pedestrian ship" speed="13.89" length="0.10" width="4.00" shape="10.08,2.00 10.08,2.00"/>
    </edge>
    <edge id=":2.18_1" function="internal">
        <lane id=":2.18_1_0" index="0" disallow="tram rail_urban rail rail_electric pedestrian ship" speed="13.89" length="0.10" width="4.00" shape="10.08,-2.00 10.08,-2.00"/>
    </edge>
    <edge id=":20_0" function="internal">
        <lane id=":20_0_0" index="0" disallow="tram rail_urban rail rail_electric pedestrian ship" speed="6.86" length="9.89" width="4.00" shape="195.16,73.60 194.76,70.98 193.59,69.10 191.63,67.98 188.89,67.61"/>
    </edge>
    <edge id=":20_1" function="internal">
        <lane id=":20_1_0" index="0" disallow="tram rail_urban rail rail_electric pedestrian ship" speed="13.89" length="16.39" width="4.00" shape="195.16,73.60 195.16,57.21"/>
    </edge>
    <edge id=":20_2" function="internal">
        <lane id=":20_2_0" index="0" disallow="tram rail_urban rail rail_electric pedestrian ship" speed="13.89" length="16.39" width="4.00" shape="199.16,57.21 199.16,73.60"/>
    </edge>
    <edge id=":20_3" function="internal">
        <lane id=":20_3_0" index="0" disallow="tram rail_urban rail rail_electric pedestrian ship" speed="8.69" length="7.26" width="4.00" shape="199.16,57.21 198.52,61.76 197.16,64.05"/>
    </edge>
    <edge id=":20_5" function="internal">
        <lane id=":20_5_0" index="0" disallow="tram rail_urban rail rail_electric pedestrian ship" speed="8.69" length="9.40" width="4.00" shape="197.16,64.05 196.59,65.00 193.38,66.95 188.89,67.61"/>
    </edge>
    <edge id=":20_4" function="internal">
        <lane id=":20_4_0" index="0" disallow="tram rail_urban rail rail_electric pedestrian ship" speed="8.61" length="16.34" width="4.00" shape="188.89,63.61 193.38,64.23 196.59,66.10 198.51,69.23 199.16,73.60"/>
    </edge>
    <edge id=":230_0" function="internal">
        <lane id=":230_0_0" index="0" disallow="tram rail_urban rail rail_electric pedestrian ship" speed="13.89" length="16.68" width="4.00" shape="-2.00,123.01 -1.99,106.33"/>
    </edge>
    <edge id=":230_1" function="internal">
        <lane id=":230_1_0" index="0" disallow="tram rail_urban rail rail_electric pedestrian ship" speed="8.73" length="6.85" width="4.00" shape="-2.00,123.01 -1.32,118.63 0.01,116.60"/>
    </edge>
    <edge id=":230_6" function="internal">
        <lane id=":230_6_0" index="0" disallow="tram rail_urban rail rail_electric pedestrian ship" speed="8.73" length="9.97" width="4.00" shape="0.01,116.60 0.72,115.51 4.11,113.63 8.86,113.01"/>
    </edge>
    <edge id=":230_2" function="internal">
        <lane id=":230_2_0" index="0" disallow="tram rail_urban rail rail_electric pedestrian ship" speed="7.01" length="10.38" width="4.00" shape="8.86,117.01 5.86,117.38 3.72,118.51 2.43,120.38 2.00,123.01"/>
    </edge>
    <edge id=":230_3" function="internal">
        <lane id=":230_3_0" index="0" disallow="tram rail_urban rail rail_electric pedestrian ship" speed="8.86" length="17.37" width="4.00" shape="8.86,117.01 4.11,116.34 0.72,114.34 -1.31,111.00 -1.99,106.33"/>
    </edge>
    <edge id=":230_4" function="internal">
        <lane id=":230_4_0" index="0" disallow="tram rail_urban rail rail_electric pedestrian ship" speed="7.16" length="10.91" width="4.00" shape="2.01,106.33 2.44,109.25 3.72,111.34 5.86,112.59 8.86,113.01"/>
    </edge>
    <edge id=":230_5" function="internal">
        <lane id=":230_5_0" index="0" disallow="tram rail_urban rail rail_electric pedestrian ship" speed="13.89" length="16.68" width="4.00" shape="2.01,106.33 2.00,123.01"/>
    </edge>
    <edge id=":265_0" function="internal">
        <lane id=":265_0_0" index="0" disallow="tram rail_urban rail rail_electric pedestrian ship" speed="13.89" length="16.00" width="4.00" shape="147.62,116.94 131.62,116.95"/>
    </edge>
    <edge id=":265_1" function="internal">
        <lane id=":265_1_0" index="0" disallow="tram rail_urban rail rail_electric pedestrian ship" speed="6.90" length="10.02" width="4.00" shape="141.61,106.52 141.99,109.33 143.12,111.34 144.99,112.54 147.62,112.94"/>
    </edge>
    <edge id=":265_2" function="internal">
        <lane id=":265_2_0" index="0" disallow="tram rail_urban rail rail_electric pedestrian ship" speed="8.64" length="16.47" width="4.00" shape="141.61,106.52 140.99,111.08 139.12,114.34 135.99,116.30 131.62,116.95"/>
    </edge>
    <edge id=":265_3" function="internal">
        <lane id=":265_3_0" index="0" disallow="tram rail_urban rail rail_electric pedestrian ship" speed="13.89" length="16.00" width="4.00" shape="131.62,112.95 147.62,112.94"/>
    </edge>
    <edge id=":3.12_0" function="internal">
        <lane id=":3.12_0_0" index="0" disallow="tram rail_urban rail rail_electric pedestrian ship" speed="13.89" length="0.58" width="4.00" shape="187.40,199.11 187.23,199.13 187.11,199.14 186.99,199.14 186.82,199.14"/>
    </edge>
    <edge id=":3.12_1" function="internal">
        <lane id=":3.12_1_0" index="0" disallow="tram rail_urban rail rail_electric pedestrian ship" speed="13.89" length="0.19" width="4.00" shape="186.82,195.14 186.88,195.14 186.92,195.14 186.96,195.14 187.01,195.13"/>
    </edge>
    <edge id=":3.15_0" function="internal">
        <lane id=":3.15_0_0" index="0" disallow="tram rail_urban rail rail_electric pedestrian ship" speed="13.89" length="0.34" width="4.00" shape="195.20,186.69 195.20,186.35"/>
    </edge>
    <edge id=":3.15_1" function="internal">
        <lane id=":3.15_1_0" index="0" disallow="tram rail_urban rail rail_electric pedestrian ship" speed="13.89" length="0.34" width="4.00" shape="199.20,186.34 199.20,186.68"/>
    </edge>
    <edge id=":55_0" function="internal">
        <lane id=":55_0_0" index="0" disallow="tram rail_urban rail rail_electric pedestrian ship" speed="13.89" length="16.25" width="4.00" shape="47.31,73.69 47.31,57.44"/>
    </edge>
    <edge id=":55_1" function="internal">
        <lane id=":55_1_0" index="0" disallow="tram rail_urban rail rail_electric pedestrian ship" speed="8.59" length="7.05" width="4.00" shape="47.31,73.69 47.95,69.31 49.31,67.06"/>
    </edge>
    <edge id=":55_6" function="internal">
        <lane id=":55_6_0" index="0" disallow="tram rail_urban rail rail_electric pedestrian ship" speed="8.59" length="9.17" width="4.00" shape="49.31,67.06 49.84,66.19 53.01,64.31 57.44,63.69"/>
    </edge>
    <edge id=":55_2" function="internal">
        <lane id=":55_2_0" index="0" disallow="tram rail_urban rail rail_electric pedestrian ship" speed="6.83" length="9.78" width="4.00" shape="57.44,67.69 54.76,68.06 52.85,69.19 51.70,71.06 51.31,73.69"/>
    </edge>
    <edge id=":55_3" function="internal">
        <lane id=":55_3_0" index="0" disallow="tram rail_urban rail rail_electric pedestrian ship" speed="8.63" length="16.43" width="4.00" shape="57.44,67.69 53.01,67.05 49.85,65.13 47.95,61.92 47.31,57.44"/>
    </edge>
    <edge id=":55_4" function="internal">
        <lane id=":55_4_0" index="0" disallow="tram rail_urban rail rail_electric pedestrian ship" speed="6.88" length="9.98" width="4.00" shape="51.31,57.44 51.70,60.17 52.84,62.13 54.76,63.30 57.44,63.69"/>
    </edge>
    <edge id=":55_5" function="internal">
        <lane id=":55_5_0" index="0" disallow="tram rail_urban rail rail_electric pedestrian ship" speed="13.89" length="16.25" width="4.00" shape="51.31,57.44 51.31,73.69"/>
    </edge>
    <edge id=":90_0" function="internal">
        <lane id=":90_0_0" index="0" disallow="tram rail_urban rail rail_electric pedestrian ship" speed="6.89" length="9.98" width="4.00" shape="137.58,73.64 137.18,71.01 135.98,69.14 133.99,68.01 131.21,67.64"/>
    </edge>
    <edge id=":90_1" function="internal">
        <lane id=":90_1_0" index="0" disallow="tram rail_urban rail rail_electric pedestrian ship" speed="8.56" length="16.13" width="4.00" shape="137.58,73.64 138.20,69.26 140.07,66.14 143.19,64.26 147.57,63.63"/>
    </edge>
    <edge id=":90_2" function="internal">
        <lane id=":90_2_0" index="0" disallow="tram rail_urban rail rail_electric pedestrian ship" speed="6.79" length="9.68" width="4.00" shape="147.57,67.63 144.95,68.01 143.07,69.13 141.95,71.01 141.58,73.64"/>
    </edge>
    <edge id=":90_3" function="internal">
        <lane id=":90_3_0" index="0" disallow="tram rail_urban rail rail_electric pedestrian ship" speed="13.89" length="16.37" width="4.00" shape="147.57,67.63 131.21,67.64"/>
    </edge>
    <edge id=":90_4" function="internal">
        <lane id=":90_4_0" index="0" disallow="tram rail_urban rail rail_electric pedestrian ship" speed="13.89" length="16.37" width="4.00" shape="131.20,63.64 147.57,63.63"/>
    </edge>
    <edge id=":90_5" function="internal">
        <lane id=":90_5_0" index="0" disallow="tram rail_urban rail rail_electric pedestrian ship" speed="8.63" length="7.32" width="4.00" shape="131.20,63.64 135.74,64.26 138.11,65.64"/>
    </edge>
    <edge id=":90_6" function="internal">
        <lane id=":90_6_0" index="0" disallow="tram rail_urban rail rail_electric pedestrian ship" speed="8.63" length="9.10" width="4.00" shape="138.11,65.64 138.98,66.14 140.93,69.26 141.58,73.64"/>
    </edge>

    <edge id="-0.0.00" from="2.0" to="230" priority="1" type="driving" shape="0.09,9.86 0.09,11.85 0.08,13.84 0.08,15.83 0.08,17.81 0.07,19.80 0.07,21.79 0.07,23.78 0.06,25.77 0.06,27.75 0.06,29.74 0.06,31.73 0.05,33.72 0.05,35.71 0.05,37.69 0.04,39.68 0.04,41.67 0.04,43.66 0.03,45.65 0.03,47.64 0.03,49.62 0.02,51.61 0.02,53.60 0.02,54.28 0.02,56.28 0.02,58.28 0.02,60.27 0.02,62.27 0.02,64.27 0.02,66.27 0.02,68.27 0.02,70.26 0.02,72.26 0.02,74.26 0.01,76.26 0.01,78.25 0.01,80.25 0.01,82.25 0.01,84.25 0.01,86.24 0.01,88.24 0.01,90.24 0.01,92.24 0.01,94.24 0.01,96.23 0.01,98.23 0.01,99.85 0.01,101.47 0.01,103.09 0.01,104.71 0.01,106.33">
        <lane id="-0.0.00_0" index="0" disallow="tram rail_urban rail rail_electric pedestrian ship" speed="13.89" length="96.46" width="4.00" shape="2.09,9.86 2.09,11.85 2.08,13.84 2.08,15.83 2.08,17.82 2.07,19.80 2.07,21.79 2.07,23.78 2.06,25.77 2.06,27.76 2.06,29.75 2.06,31.73 2.05,33.72 2.05,35.71 2.05,37.70 2.04,39.69 2.04,41.67 2.04,43.66 2.03,45.65 2.03,47.64 2.03,49.63 2.02,51.62 2.02,53.60 2.02,54.28 2.02,56.28 2.02,58.28 2.02,60.27 2.02,62.27 2.02,64.27 2.02,66.27 2.02,68.27 2.02,70.26 2.02,72.26 2.02,74.26 2.01,76.26 2.01,78.25 2.01,80.25 2.01,82.25 2.01,84.25 2.01,86.24 2.01,88.24 2.01,90.24 2.01,92.24 2.01,94.24 2.01,96.23 2.01,98.23 2.01,99.85 2.01,101.47 2.01,103.09 2.01,104.71 2.01,106.33"/>
    </edge>
    <edge id="-1.0.00" from="230" to="16.1" priority="1" type="driving" shape="0.00,122.24 0.00,124.20 0.00,126.17 0.00,128.14 0.00,130.10 0.00,132.07 0.00,134.04 0.00,136.00 0.00,137.97 0.00,139.94 0.00,141.90 0.00,143.14 0.01,145.13 0.01,147.13 0.01,149.12 0.02,151.11 0.02,153.11 0.03,155.10 0.03,157.10 0.04,159.09 0.04,161.08 0.05,163.08 0.05,165.07 0.06,167.06 0.06,169.06 0.06,171.05 0.07,173.04 0.07,175.04 0.08,177.03 0.08,179.03 0.09,181.02 0.09,183.01 0.10,185.01 0.10,187.00">
        <lane id="-1.0.00_0" index="0" disallow="tram rail_urban rail rail_electric pedestrian ship" speed="13.89" length="63.99" width="4.00" shape="2.00,123.01 2.00,124.20 2.00,126.17 2.00,128.14 2.00,130.10 2.00,132.07 2.00,134.04 2.00,136.00 2.00,137.97 2.00,139.94 2.00,141.90 2.00,143.14 2.01,145.13 2.01,147.12 2.01,149.12 2.02,151.11 2.02,153.10 2.03,155.10 2.03,157.09 2.04,159.08 2.04,161.08 2.05,163.07 2.05,165.07 2.06,167.06 2.06,169.05 2.06,171.05 2.07,173.04 2.07,175.03 2.08,177.03 2.08,179.02 2.09,181.02 2.09,183.01 2.10,185.00 2.10,187.00"/>
    </edge>
    <edge id="-10.0.00" from="20" to="90" priority="1" type="driving" shape="188.89,65.61 147.28,65.63">
        <lane id="-10.0.00_0" index="0" disallow="tram rail_urban rail rail_electric pedestrian ship" speed="13.89" length="41.32" width="4.00" shape="188.89,67.61 147.57,67.63"/>
    </edge>
    <edge id="-11.0.00" from="90" to="55" priority="1" type="driving" shape="131.20,65.64 57.44,65.69">
        <lane id="-11.0.00_0" index="0" disallow="tram rail_urban rail rail_electric pedestrian ship" speed="13.89" length="73.77" width="4.00" shape="131.21,67.64 57.44,67.69"/>
    </edge>
    <edge id="-12.0.00" from="3.12" to="16.12" priority="1" type="driving" shape="186.96,197.14 184.97,197.14 182.98,197.14 180.98,197.14 178.99,197.14 177.00,197.13 175.01,197.13 173.01,197.13 171.02,197.13 169.03,197.13 167.04,197.13 165.04,197.13 163.05,197.12 161.06,197.12 159.07,197.12 157.08,197.12 155.08,197.12 153.09,197.12 151.10,197.12 149.11,197.12 147.11,197.11 145.12,197.11 143.13,197.11 142.45,197.11 140.46,197.11 138.47,197.11 136.48,197.12 134.49,197.12 132.50,197.12 130.51,197.12 128.52,197.12 126.54,197.12 124.55,197.12 122.56,197.12 120.57,197.13 118.58,197.13 116.59,197.13 114.60,197.13 112.61,197.13 110.62,197.13 108.63,197.13 106.64,197.14 104.65,197.14 102.66,197.14 100.67,197.14 98.68,197.14 96.73,197.14 94.77,197.14 92.82,197.14 90.86,197.15 88.90,197.15 86.95,197.15 84.99,197.15 83.04,197.15 81.08,197.15 79.12,197.15 77.17,197.16 75.21,197.16 73.26,197.16 71.30,197.16 69.34,197.16 67.39,197.16 65.43,197.16 63.48,197.16 61.52,197.17 59.56,197.17 57.61,197.17 55.65,197.17 53.65,197.17 53.51,197.17 51.54,197.16 49.58,197.15 47.61,197.15 45.64,197.14 43.68,197.13 41.71,197.12 39.75,197.12 37.78,197.11 35.82,197.10 33.85,197.10 31.88,197.09 29.92,197.08 27.95,197.07 25.99,197.07 24.02,197.06 22.05,197.05 20.09,197.05 18.12,197.04 16.16,197.03 14.19,197.02 12.23,197.02 10.26,197.01">
        <lane id="-12.0.00_0" index="0" disallow="tram rail_urban rail rail_electric pedestrian ship" speed="13.89" length="175.72" width="4.00" shape="186.82,199.14 184.97,199.14 182.97,199.14 180.98,199.14 178.99,199.14 177.00,199.13 175.00,199.13 173.01,199.13 171.02,199.13 169.03,199.13 167.04,199.13 165.04,199.13 163.05,199.12 161.06,199.12 159.07,199.12 157.07,199.12 155.08,199.12 153.09,199.12 151.10,199.12 149.11,199.12 147.11,199.11 145.12,199.11 143.13,199.11 142.45,199.11 140.46,199.11 138.47,199.11 136.48,199.12 134.49,199.12 132.50,199.12 130.52,199.12 128.53,199.12 126.54,199.12 124.55,199.12 122.56,199.12 120.57,199.13 118.58,199.13 116.59,199.13 114.60,199.13 112.61,199.13 110.62,199.13 108.63,199.13 106.64,199.14 104.65,199.14 102.66,199.14 100.68,199.14 98.69,199.14 96.73,199.14 94.77,199.14 92.82,199.14 90.86,199.15 88.91,199.15 86.95,199.15 84.99,199.15 83.04,199.15 81.08,199.15 79.13,199.15 77.17,199.16 75.21,199.16 73.26,199.16 71.30,199.16 69.35,199.16 67.39,199.16 65.43,199.16 63.48,199.16 61.52,199.17 59.57,199.17 57.61,199.17 55.65,199.17 53.65,199.17 53.50,199.17 51.53,199.16 49.57,199.15 47.60,199.15 45.64,199.14 43.67,199.13 41.71,199.12 39.74,199.12 37.77,199.11 35.81,199.10 33.84,199.10 31.88,199.09 29.91,199.08 27.94,199.07 25.98,199.07 24.01,199.06 22.05,199.05 20.08,199.05 18.12,199.04 16.15,199.03 14.18,199.02 12.22,199.02 11.10,199.01"/>
    </edge>
    <edge id="-13.0.00" from="17.13" to="20" priority="1" type="driving" shape="197.13,9.98 197.13,11.96 197.13,13.95 197.13,15.93 197.14,17.91 197.14,19.90 197.14,21.88 197.14,23.86 197.14,25.85 197.14,27.83 197.14,29.81 197.14,31.80 197.15,33.78 197.15,35.76 197.15,37.75 197.15,39.73 197.15,41.71 197.15,43.70 197.15,45.68 197.16,47.66 197.16,49.65 197.16,51.63 197.16,53.61 197.16,54.07 197.16,55.64 197.16,57.21">
        <lane id="-13.0.00_0" index="0" disallow="tram rail_urban rail rail_electric pedestrian ship" speed="13.89" length="47.09" width="4.00" shape="199.13,10.12 199.13,11.96 199.13,13.95 199.13,15.93 199.14,17.91 199.14,19.90 199.14,21.88 199.14,23.86 199.14,25.85 199.14,27.83 199.14,29.81 199.14,31.80 199.15,33.78 199.15,35.76 199.15,37.75 199.15,39.73 199.15,41.71 199.15,43.70 199.15,45.68 199.16,47.66 199.16,49.65 199.16,51.63 199.16,53.61 199.16,54.07 199.16,55.64 199.16,57.21"/>
    </edge>
    <edge id="-14.0.00" from="20" to="160" priority="1" type="driving" shape="197.16,73.06 197.16,74.99 197.15,76.91 197.15,78.84 197.15,80.76 197.15,82.69 197.15,84.61 197.15,86.53 197.15,88.46 197.15,90.38 197.15,92.31 197.15,94.23 197.15,96.16 197.15,98.08 197.15,99.90 197.15,101.73 197.15,103.55 197.15,105.37 197.15,107.20">
        <lane id="-14.0.00_0" index="0" disallow="tram rail_urban rail rail_electric pedestrian ship" speed="13.89" length="33.32" width="4.00" shape="199.16,73.60 199.16,74.99 199.15,76.91 199.15,78.84 199.15,80.76 199.15,82.69 199.15,84.61 199.15,86.54 199.15,88.46 199.15,90.38 199.15,92.31 199.15,94.23 199.15,96.16 199.15,98.08 199.15,99.90 199.15,101.73 199.15,103.55 199.15,105.37 199.15,106.92"/>
    </edge>
    <edge id="-15.0.00" from="160" to="3.15" priority="1" type="driving" shape="197.14,122.22 197.14,124.19 197.14,126.16 197.14,128.13 197.14,130.10 197.14,132.07 197.14,134.04 197.14,136.01 197.14,137.98 197.14,139.95 197.14,141.92 197.14,142.72 197.14,144.71 197.15,146.70 197.15,148.69 197.15,150.68 197.15,152.67 197.16,154.66 197.16,156.64 197.16,158.63 197.16,160.62 197.17,162.61 197.17,164.60 197.17,166.59 197.18,168.58 197.18,170.57 197.18,172.56 197.18,174.55 197.19,176.54 197.19,178.53 197.19,180.52 197.19,182.51 197.20,184.50 197.20,186.49">
        <lane id="-15.0.00_0" index="0" disallow="tram rail_urban rail rail_electric pedestrian ship" speed="13.89" length="63.42" width="4.00" shape="199.14,122.92 199.14,124.19 199.14,126.16 199.14,128.13 199.14,130.10 199.14,132.07 199.14,134.04 199.14,136.01 199.14,137.98 199.14,139.95 199.14,141.92 199.14,142.71 199.14,144.70 199.15,146.69 199.15,148.68 199.15,150.67 199.15,152.66 199.16,154.65 199.16,156.64 199.16,158.63 199.16,160.62 199.17,162.61 199.17,164.60 199.17,166.59 199.18,168.58 199.18,170.57 199.18,172.56 199.18,174.55 199.19,176.54 199.19,178.53 199.19,180.52 199.19,182.51 199.20,184.50 199.20,186.34"/>
    </edge>
    <edge id="-16.0.00" from="16.1" to="16.12" priority="1" type="driving" shape="0.10,187.00 0.10,188.00 0.35,189.98 1.07,191.85 2.21,193.48 3.38,194.54 3.75,194.82 5.45,195.87 7.31,196.59 9.27,196.96">
        <lane id="-16.0.00_0" index="0" disallow="tram rail_urban rail rail_electric pedestrian ship" speed="13.89" length="12.25" width="4.00" shape="2.10,187.00 2.10,187.88 2.30,189.49 2.84,190.90 3.72,192.15 4.69,193.04 4.88,193.17 6.34,194.07 7.86,194.66 9.64,195.00"/>
    </edge>
    <edge id="-17.0.00" from="17.13" to="19.17" priority="1" type="driving" shape="197.13,9.98 197.13,9.67 196.90,7.68 196.23,5.80 195.14,4.13 193.71,2.74 193.62,2.68 193.19,2.36 191.49,1.31 189.63,0.56 187.68,0.15">